sisyphean-power-and-light/network/results/scenarios/ev_adoption_2030/pvsystems.dss
! Scenario PV Systems

New PVSystem.pv_XFMR-000001 bus1=bus_XFMR-000001_sec phases=1 kV=0.24 kVA=180.8 Pmpp=180.8 irradiance=1 pf=1
New PVSystem.pv_XFMR-000003 bus1=bus_XFMR-000003_sec phases=1 kV=0.24 kVA=133.9 Pmpp=133.9 irradiance=1 pf=1
New PVSystem.pv_XFMR-000005 bus1=bus_XFMR-000005_sec phases=1 kV=0.24 kVA=133.5 Pmpp=133.5 irradiance=1 pf=1
New PVSystem.pv_XFMR-000006 bus1=bus_XFMR-000006_sec phases=1 kV=0.24 kVA=1504.0 Pmpp=1504.0 irradiance=1 pf=1
New PVSystem.pv_XFMR-000009 bus1=bus_XFMR-000009_sec phases=1 kV=0.24 kVA=46.2 Pmpp=46.2 irradiance=1 pf=1
New PVSystem.pv_XFMR-000010 bus1=bus_XFMR-000010_sec phases=1 kV=0.24 kVA=159.0 Pmpp=159.0 irradiance=1 pf=1
New PVSystem.pv_XFMR-000012 bus1=bus_XFMR-000012_sec phases=1 kV=0.24 kVA=165.6 Pmpp=165.6 irradiance=1 pf=1
New PVSystem.pv_XFMR-000013 bus1=bus_XFMR-000013_sec phases=1 kV=0.24 kVA=69.3 Pmpp=69.3 irradiance=1 pf=1
New PVSystem.pv_XFMR-000014 bus1=bus_XFMR-000014_sec phases=1 kV=0.24 kVA=2314.9 Pmpp=2314.9 irradiance=1 pf=1
New PVSystem.pv_XFMR-000015 bus1=bus_XFMR-000015_sec phases=1 kV=0.24 kVA=349.4 Pmpp=349.4 irradiance=1 pf=1
New PVSystem.pv_XFMR-000016 bus1=bus_XFMR-000016_sec phases=1 kV=0.24 kVA=168.3 Pmpp=168.3 irradiance=1 pf=1
New PVSystem.pv_XFMR-000017 bus1=bus_XFMR-000017_sec phases=1 kV=0.24 kVA=408.1 Pmpp=408.1 irradiance=1 pf=1
New PVSystem.pv_XFMR-000018 bus1=bus_XFMR-000018_sec phases=1 kV=0.24 kVA=172.3 Pmpp=172.3 irradiance=1 pf=1
New PVSystem.pv_XFMR-000020 bus1=bus_XFMR-000020_sec phases=1 kV=0.24 kVA=83.2 Pmpp=83.2 irradiance=1 pf=1
New PVSystem.pv_XFMR-000021 bus1=bus_XFMR-000021_sec phases=1 kV=0.24 kVA=1515.0 Pmpp=1515.0 irradiance=1 pf=1
New PVSystem.pv_XFMR-000022 bus1=bus_XFMR-000022_sec phases=1 kV=0.24 kVA=129.2 Pmpp=129.2 irradiance=1 pf=1
New PVSystem.pv_XFMR-000025 bus1=bus_XFMR-000025_sec phases=1 kV=0.24 kVA=161.0 Pmpp=161.0 irradiance=1 pf=1
New PVSystem.pv_XFMR-000026 bus1=bus_XFMR-000026_sec phases=1 kV=0.24 kVA=35.2 Pmpp=35.2 irradiance=1 pf=1
New PVSystem.pv_XFMR-000027 bus1=bus_XFMR-000027_sec phases=1 kV=0.24 kVA=230.4 Pmpp=230.4 irradiance=1 pf=1
New PVSystem.pv_XFMR-000029 bus1=bus_XFMR-000029_sec phases=1 kV=0.24 kVA=127.6 Pmpp=127.6 irradiance=1 pf=1
New PVSystem.pv_XFMR-000036 bus1=bus_XFMR-000036_sec phases=1 kV=0.24 kVA=440.1 Pmpp=440.1 irradiance=1 pf=1
New PVSystem.pv_XFMR-000037 bus1=bus_XFMR-000037_sec phases=1 kV=0.24 kVA=178.6 Pmpp=178.6 irradiance=1 pf=1
New PVSystem.pv_XFMR-000038 bus1=bus_XFMR-000038_sec phases=1 kV=0.24 kVA=53.9 Pmpp=53.9 irradiance=1 pf=1
New PVSystem.pv_XFMR-000040 bus1=bus_XFMR-000040_sec phases=1 kV=0.24 kVA=52.8 Pmpp=52.8 irradiance=1 pf=1
New PVSystem.pv_XFMR-000042 bus1=bus_XFMR-000042_sec phases=1 kV=0.24 kVA=62.1 Pmpp=62.1 irradiance=1 pf=1
New PVSystem.pv_XFMR-000043 bus1=bus_XFMR-000043_sec phases=1 kV=0.24 kVA=89.6 Pmpp=89.6 irradiance=1 pf=1
New PVSystem.pv_XFMR-000045 bus1=bus_XFMR-000045_sec phases=1 kV=0.24 kVA=131.2 Pmpp=131.2 irradiance=1 pf=1
New PVSystem.pv_XFMR-000046 bus1=bus_XFMR-000046_sec phases=1 kV=0.24 kVA=103.2 Pmpp=103.2 irradiance=1 pf=1
New PVSystem.pv_XFMR-000048 bus1=bus_XFMR-000048_sec phases=1 kV=0.24 kVA=156.0 Pmpp=156.0 irradiance=1 pf=1
New PVSystem.pv_XFMR-000049 bus1=bus_XFMR-000049_sec phases=1 kV=0.24 kVA=1357.5 Pmpp=1357.5 irradiance=1 pf=1
New PVSystem.pv_XFMR-000053 bus1=bus_XFMR-000053_sec phases=1 kV=0.24 kVA=204.7 Pmpp=204.7 irradiance=1 pf=1
New PVSystem.pv_XFMR-000054 bus1=bus_XFMR-000054_sec phases=1 kV=0.24 kVA=67.2 Pmpp=67.2 irradiance=1 pf=1
New PVSystem.pv_XFMR-000055 bus1=bus_XFMR-000055_sec phases=1 kV=0.24 kVA=95.0 Pmpp=95.0 irradiance=1 pf=1
New PVSystem.pv_XFMR-000057 bus1=bus_XFMR-000057_sec phases=1 kV=0.24 kVA=158.4 Pmpp=158.4 irradiance=1 pf=1
New PVSystem.pv_XFMR-000058 bus1=bus_XFMR-000058_sec phases=1 kV=0.24 kVA=62.4 Pmpp=62.4 irradiance=1 pf=1
New PVSystem.pv_XFMR-000060 bus1=bus_XFMR-000060_sec phases=1 kV=0.24 kVA=135.6 Pmpp=135.6 irradiance=1 pf=1
New PVSystem.pv_XFMR-000061 bus1=bus_XFMR-000061_sec phases=1 kV=0.24 kVA=952.0 Pmpp=952.0 irradiance=1 pf=1
New PVSystem.pv_XFMR-000062 bus1=bus_XFMR-000062_sec phases=1 kV=0.24 kVA=76.5 Pmpp=76.5 irradiance=1 pf=1
New PVSystem.pv_XFMR-000063 bus1=bus_XFMR-000063_sec phases=1 kV=0.24 kVA=79.8 Pmpp=79.8 irradiance=1 pf=1
New PVSystem.pv_XFMR-000064 bus1=bus_XFMR-000064_sec phases=1 kV=0.24 kVA=37.4 Pmpp=37.4 irradiance=1 pf=1
New PVSystem.pv_XFMR-000065 bus1=bus_XFMR-000065_sec phases=1 kV=0.24 kVA=206.2 Pmpp=206.2 irradiance=1 pf=1
New PVSystem.pv_XFMR-000066 bus1=bus_XFMR-000066_sec phases=1 kV=0.24 kVA=62.4 Pmpp=62.4 irradiance=1 pf=1
New PVSystem.pv_XFMR-000067 bus1=bus_XFMR-000067_sec phases=1 kV=0.24 kVA=1149.0 Pmpp=1149.0 irradiance=1 pf=1
New PVSystem.pv_XFMR-000068 bus1=bus_XFMR-000068_sec phases=1 kV=0.24 kVA=71.4 Pmpp=71.4 irradiance=1 pf=1
New PVSystem.pv_XFMR-000069 bus1=bus_XFMR-000069_sec phases=1 kV=0.24 kVA=41.6 Pmpp=41.6 irradiance=1 pf=1
New PVSystem.pv_XFMR-000075 bus1=bus_XFMR-000075_sec phases=1 kV=0.24 kVA=141.2 Pmpp=141.2 irradiance=1 pf=1
New PVSystem.pv_XFMR-000078 bus1=bus_XFMR-000078_sec phases=1 kV=0.24 kVA=78.4 Pmpp=78.4 irradiance=1 pf=1
New PVSystem.pv_XFMR-000079 bus1=bus_XFMR-000079_sec phases=1 kV=0.24 kVA=4857.7 Pmpp=4857.7 irradiance=1 pf=1
New PVSystem.pv_XFMR-000083 bus1=bus_XFMR-000083_sec phases=1 kV=0.24 kVA=4977.0 Pmpp=4977.0 irradiance=1 pf=1
New PVSystem.pv_XFMR-000084 bus1=bus_XFMR-000084_sec phases=1 kV=0.24 kVA=1972.6 Pmpp=1972.6 irradiance=1 pf=1
New PVSystem.pv_XFMR-000085 bus1=bus_XFMR-000085_sec phases=1 kV=0.24 kVA=106.4 Pmpp=106.4 irradiance=1 pf=1
New PVSystem.pv_XFMR-000087 bus1=bus_XFMR-000087_sec phases=1 kV=0.24 kVA=41.3 Pmpp=41.3 irradiance=1 pf=1
New PVSystem.pv_XFMR-000089 bus1=bus_XFMR-000089_sec phases=1 kV=0.24 kVA=2053.8 Pmpp=2053.8 irradiance=1 pf=1
New PVSystem.pv_XFMR-000090 bus1=bus_XFMR-000090_sec phases=1 kV=0.24 kVA=85.2 Pmpp=85.2 irradiance=1 pf=1
New PVSystem.pv_XFMR-000091 bus1=bus_XFMR-000091_sec phases=1 kV=0.24 kVA=360.6 Pmpp=360.6 irradiance=1 pf=1
New PVSystem.pv_XFMR-000092 bus1=bus_XFMR-000092_sec phases=1 kV=0.24 kVA=96.0 Pmpp=96.0 irradiance=1 pf=1
New PVSystem.pv_XFMR-000095 bus1=bus_XFMR-000095_sec phases=1 kV=0.24 kVA=556.0 Pmpp=556.0 irradiance=1 pf=1
New PVSystem.pv_XFMR-000096 bus1=bus_XFMR-000096_sec phases=1 kV=0.24 kVA=641.5 Pmpp=641.5 irradiance=1 pf=1
New PVSystem.pv_XFMR-000097 bus1=bus_XFMR-000097_sec phases=1 kV=0.24 kVA=235.4 Pmpp=235.4 irradiance=1 pf=1
New PVSystem.pv_XFMR-000099 bus1=bus_XFMR-000099_sec phases=1 kV=0.24 kVA=91.2 Pmpp=91.2 irradiance=1 pf=1
New PVSystem.pv_XFMR-000102 bus1=bus_XFMR-000102_sec phases=1 kV=0.24 kVA=756.0 Pmpp=756.0 irradiance=1 pf=1
New PVSystem.pv_XFMR-000104 bus1=bus_XFMR-000104_sec phases=1 kV=0.24 kVA=206.4 Pmpp=206.4 irradiance=1 pf=1
New PVSystem.pv_XFMR-000106 bus1=bus_XFMR-000106_sec phases=1 kV=0.24 kVA=31.5 Pmpp=31.5 irradiance=1 pf=1
New PVSystem.pv_XFMR-000107 bus1=bus_XFMR-000107_sec phases=1 kV=0.24 kVA=87.1 Pmpp=87.1 irradiance=1 pf=1
New PVSystem.pv_XFMR-000108 bus1=bus_XFMR-000108_sec phases=1 kV=0.24 kVA=99.0 Pmpp=99.0 irradiance=1 pf=1
New PVSystem.pv_XFMR-000109 bus1=bus_XFMR-000109_sec phases=1 kV=0.24 kVA=48.4 Pmpp=48.4 irradiance=1 pf=1
New PVSystem.pv_XFMR-000111 bus1=bus_XFMR-000111_sec phases=1 kV=0.24 kVA=1718.4 Pmpp=1718.4 irradiance=1 pf=1
New PVSystem.pv_XFMR-000112 bus1=bus_XFMR-000112_sec phases=1 kV=0.24 kVA=4794.6 Pmpp=4794.6 irradiance=1 pf=1
New PVSystem.pv_XFMR-000115 bus1=bus_XFMR-000115_sec phases=1 kV=0.24 kVA=275.2 Pmpp=275.2 irradiance=1 pf=1
New PVSystem.pv_XFMR-000116 bus1=bus_XFMR-000116_sec phases=1 kV=0.24 kVA=86.4 Pmpp=86.4 irradiance=1 pf=1
New PVSystem.pv_XFMR-000117 bus1=bus_XFMR-000117_sec phases=1 kV=0.24 kVA=313.2 Pmpp=313.2 irradiance=1 pf=1
New PVSystem.pv_XFMR-000119 bus1=bus_XFMR-000119_sec phases=1 kV=0.24 kVA=83.2 Pmpp=83.2 irradiance=1 pf=1
New PVSystem.pv_XFMR-000120 bus1=bus_XFMR-000120_sec phases=1 kV=0.24 kVA=139.2 Pmpp=139.2 irradiance=1 pf=1
New PVSystem.pv_XFMR-000125 bus1=bus_XFMR-000125_sec phases=1 kV=0.24 kVA=111.8 Pmpp=111.8 irradiance=1 pf=1
New PVSystem.pv_XFMR-000126 bus1=bus_XFMR-000126_sec phases=1 kV=0.24 kVA=89.1 Pmpp=89.1 irradiance=1 pf=1
New PVSystem.pv_XFMR-000128 bus1=bus_XFMR-000128_sec phases=1 kV=0.24 kVA=65.6 Pmpp=65.6 irradiance=1 pf=1
New PVSystem.pv_XFMR-000129 bus1=bus_XFMR-000129_sec phases=1 kV=0.24 kVA=165.0 Pmpp=165.0 irradiance=1 pf=1
New PVSystem.pv_XFMR-000131 bus1=bus_XFMR-000131_sec phases=1 kV=0.24 kVA=952.8 Pmpp=952.8 irradiance=1 pf=1
New PVSystem.pv_XFMR-000132 bus1=bus_XFMR-000132_sec phases=1 kV=0.24 kVA=6818.4 Pmpp=6818.4 irradiance=1 pf=1
New PVSystem.pv_XFMR-000133 bus1=bus_XFMR-000133_sec phases=1 kV=0.24 kVA=2183.6 Pmpp=2183.6 irradiance=1 pf=1
New PVSystem.pv_XFMR-000134 bus1=bus_XFMR-000134_sec phases=1 kV=0.24 kVA=93.5 Pmpp=93.5 irradiance=1 pf=1
New PVSystem.pv_XFMR-000135 bus1=bus_XFMR-000135_sec phases=1 kV=0.24 kVA=36.0 Pmpp=36.0 irradiance=1 pf=1
New PVSystem.pv_XFMR-000137 bus1=bus_XFMR-000137_sec phases=1 kV=0.24 kVA=186.0 Pmpp=186.0 irradiance=1 pf=1
New PVSystem.pv_XFMR-000139 bus1=bus_XFMR-000139_sec phases=1 kV=0.24 kVA=3704.4 Pmpp=3704.4 irradiance=1 pf=1
New PVSystem.pv_XFMR-000140 bus1=bus_XFMR-000140_sec phases=1 kV=0.24 kVA=241.3 Pmpp=241.3 irradiance=1 pf=1
New PVSystem.pv_XFMR-000141 bus1=bus_XFMR-000141_sec phases=1 kV=0.24 kVA=5608.8 Pmpp=5608.8 irradiance=1 pf=1
New PVSystem.pv_XFMR-000142 bus1=bus_XFMR-000142_sec phases=1 kV=0.24 kVA=131.2 Pmpp=131.2 irradiance=1 pf=1
New PVSystem.pv_XFMR-000144 bus1=bus_XFMR-000144_sec phases=1 kV=0.24 kVA=1079.0 Pmpp=1079.0 irradiance=1 pf=1
New PVSystem.pv_XFMR-000145 bus1=bus_XFMR-000145_sec phases=1 kV=0.24 kVA=256.2 Pmpp=256.2 irradiance=1 pf=1
New PVSystem.pv_XFMR-000148 bus1=bus_XFMR-000148_sec phases=1 kV=0.24 kVA=385.8 Pmpp=385.8 irradiance=1 pf=1
New PVSystem.pv_XFMR-000149 bus1=bus_XFMR-000149_sec phases=1 kV=0.24 kVA=51.0 Pmpp=51.0 irradiance=1 pf=1
New PVSystem.pv_XFMR-000155 bus1=bus_XFMR-000155_sec phases=1 kV=0.24 kVA=120.4 Pmpp=120.4 irradiance=1 pf=1
New PVSystem.pv_XFMR-000156 bus1=bus_XFMR-000156_sec phases=1 kV=0.24 kVA=420.0 Pmpp=420.0 irradiance=1 pf=1
New PVSystem.pv_XFMR-000157 bus1=bus_XFMR-000157_sec phases=1 kV=0.24 kVA=122.2 Pmpp=122.2 irradiance=1 pf=1
New PVSystem.pv_XFMR-000158 bus1=bus_XFMR-000158_sec phases=1 kV=0.24 kVA=3057.6 Pmpp=3057.6 irradiance=1 pf=1
New PVSystem.pv_XFMR-000160 bus1=bus_XFMR-000160_sec phases=1 kV=0.24 kVA=92.8 Pmpp=92.8 irradiance=1 pf=1
New PVSystem.pv_XFMR-000161 bus1=bus_XFMR-000161_sec phases=1 kV=0.24 kVA=68.6 Pmpp=68.6 irradiance=1 pf=1
New PVSystem.pv_XFMR-000164 bus1=bus_XFMR-000164_sec phases=1 kV=0.24 kVA=4078.4 Pmpp=4078.4 irradiance=1 pf=1
New PVSystem.pv_XFMR-000165 bus1=bus_XFMR-000165_sec phases=1 kV=0.24 kVA=106.4 Pmpp=106.4 irradiance=1 pf=1
New PVSystem.pv_XFMR-000166 bus1=bus_XFMR-000166_sec phases=1 kV=0.24 kVA=138.5 Pmpp=138.5 irradiance=1 pf=1
New PVSystem.pv_XFMR-000169 bus1=bus_XFMR-000169_sec phases=1 kV=0.24 kVA=137.8 Pmpp=137.8 irradiance=1 pf=1
New PVSystem.pv_XFMR-000170 bus1=bus_XFMR-000170_sec phases=1 kV=0.24 kVA=60.5 Pmpp=60.5 irradiance=1 pf=1
New PVSystem.pv_XFMR-000171 bus1=bus_XFMR-000171_sec phases=1 kV=0.24 kVA=185.2 Pmpp=185.2 irradiance=1 pf=1
New PVSystem.pv_XFMR-000172 bus1=bus_XFMR-000172_sec phases=1 kV=0.24 kVA=87.0 Pmpp=87.0 irradiance=1 pf=1
New PVSystem.pv_XFMR-000173 bus1=bus_XFMR-000173_sec phases=1 kV=0.24 kVA=1887.6 Pmpp=1887.6 irradiance=1 pf=1
New PVSystem.pv_XFMR-000175 bus1=bus_XFMR-000175_sec phases=1 kV=0.24 kVA=66.3 Pmpp=66.3 irradiance=1 pf=1
New PVSystem.pv_XFMR-000178 bus1=bus_XFMR-000178_sec phases=1 kV=0.24 kVA=260.0 Pmpp=260.0 irradiance=1 pf=1
New PVSystem.pv_XFMR-000179 bus1=bus_XFMR-000179_sec phases=1 kV=0.24 kVA=2390.1 Pmpp=2390.1 irradiance=1 pf=1
New PVSystem.pv_XFMR-000180 bus1=bus_XFMR-000180_sec phases=1 kV=0.24 kVA=5776.7 Pmpp=5776.7 irradiance=1 pf=1
New PVSystem.pv_XFMR-000181 bus1=bus_XFMR-000181_sec phases=1 kV=0.24 kVA=99.0 Pmpp=99.0 irradiance=1 pf=1
New PVSystem.pv_XFMR-000183 bus1=bus_XFMR-000183_sec phases=1 kV=0.24 kVA=1144.2 Pmpp=1144.2 irradiance=1 pf=1
New PVSystem.pv_XFMR-000184 bus1=bus_XFMR-000184_sec phases=1 kV=0.24 kVA=5363.4 Pmpp=5363.4 irradiance=1 pf=1
New PVSystem.pv_XFMR-000185 bus1=bus_XFMR-000185_sec phases=1 kV=0.24 kVA=135.0 Pmpp=135.0 irradiance=1 pf=1
New PVSystem.pv_XFMR-000187 bus1=bus_XFMR-000187_sec phases=1 kV=0.24 kVA=3232.1 Pmpp=3232.1 irradiance=1 pf=1
New PVSystem.pv_XFMR-000188 bus1=bus_XFMR-000188_sec phases=1 kV=0.24 kVA=424.9 Pmpp=424.9 irradiance=1 pf=1
New PVSystem.pv_XFMR-000194 bus1=bus_XFMR-000194_sec phases=1 kV=0.24 kVA=93.5 Pmpp=93.5 irradiance=1 pf=1
New PVSystem.pv_XFMR-000195 bus1=bus_XFMR-000195_sec phases=1 kV=0.24 kVA=110.4 Pmpp=110.4 irradiance=1 pf=1
New PVSystem.pv_XFMR-000196 bus1=bus_XFMR-000196_sec phases=1 kV=0.24 kVA=279.9 Pmpp=279.9 irradiance=1 pf=1
New PVSystem.pv_XFMR-000198 bus1=bus_XFMR-000198_sec phases=1 kV=0.24 kVA=1728.0 Pmpp=1728.0 irradiance=1 pf=1
New PVSystem.pv_XFMR-000199 bus1=bus_XFMR-000199_sec phases=1 kV=0.24 kVA=226.8 Pmpp=226.8 irradiance=1 pf=1
New PVSystem.pv_XFMR-000202 bus1=bus_XFMR-000202_sec phases=1 kV=0.24 kVA=112.2 Pmpp=112.2 irradiance=1 pf=1
New PVSystem.pv_XFMR-000204 bus1=bus_XFMR-000204_sec phases=1 kV=0.24 kVA=296.3 Pmpp=296.3 irradiance=1 pf=1
New PVSystem.pv_XFMR-000206 bus1=bus_XFMR-000206_sec phases=1 kV=0.24 kVA=112.5 Pmpp=112.5 irradiance=1 pf=1
New PVSystem.pv_XFMR-000208 bus1=bus_XFMR-000208_sec phases=1 kV=0.24 kVA=195.4 Pmpp=195.4 irradiance=1 pf=1
New PVSystem.pv_XFMR-000210 bus1=bus_XFMR-000210_sec phases=1 kV=0.24 kVA=79.2 Pmpp=79.2 irradiance=1 pf=1
New PVSystem.pv_XFMR-000212 bus1=bus_XFMR-000212_sec phases=1 kV=0.24 kVA=133.0 Pmpp=133.0 irradiance=1 pf=1
New PVSystem.pv_XFMR-000217 bus1=bus_XFMR-000217_sec phases=1 kV=0.24 kVA=99.0 Pmpp=99.0 irradiance=1 pf=1
New PVSystem.pv_XFMR-000219 bus1=bus_XFMR-000219_sec phases=1 kV=0.24 kVA=96.0 Pmpp=96.0 irradiance=1 pf=1
New PVSystem.pv_XFMR-000221 bus1=bus_XFMR-000221_sec phases=1 kV=0.24 kVA=54.0 Pmpp=54.0 irradiance=1 pf=1
New PVSystem.pv_XFMR-000223 bus1=bus_XFMR-000223_sec phases=1 kV=0.24 kVA=109.8 Pmpp=109.8 irradiance=1 pf=1
New PVSystem.pv_XFMR-000225 bus1=bus_XFMR-000225_sec phases=1 kV=0.24 kVA=255.9 Pmpp=255.9 irradiance=1 pf=1
New PVSystem.pv_XFMR-000228 bus1=bus_XFMR-000228_sec phases=1 kV=0.24 kVA=143.5 Pmpp=143.5 irradiance=1 pf=1
New PVSystem.pv_XFMR-000230 bus1=bus_XFMR-000230_sec phases=1 kV=0.24 kVA=226.1 Pmpp=226.1 irradiance=1 pf=1
New PVSystem.pv_XFMR-000232 bus1=bus_XFMR-000232_sec phases=1 kV=0.24 kVA=79.2 Pmpp=79.2 irradiance=1 pf=1
New PVSystem.pv_XFMR-000238 bus1=bus_XFMR-000238_sec phases=1 kV=0.24 kVA=115.4 Pmpp=115.4 irradiance=1 pf=1
New PVSystem.pv_XFMR-000239 bus1=bus_XFMR-000239_sec phases=1 kV=0.24 kVA=119.0 Pmpp=119.0 irradiance=1 pf=1
New PVSystem.pv_XFMR-000245 bus1=bus_XFMR-000245_sec phases=1 kV=0.24 kVA=25.2 Pmpp=25.2 irradiance=1 pf=1
New PVSystem.pv_XFMR-000247 bus1=bus_XFMR-000247_sec phases=1 kV=0.24 kVA=4007.9 Pmpp=4007.9 irradiance=1 pf=1
New PVSystem.pv_XFMR-000250 bus1=bus_XFMR-000250_sec phases=1 kV=0.24 kVA=48.0 Pmpp=48.0 irradiance=1 pf=1
New PVSystem.pv_XFMR-000252 bus1=bus_XFMR-000252_sec phases=1 kV=0.24 kVA=88.2 Pmpp=88.2 irradiance=1 pf=1
New PVSystem.pv_XFMR-000253 bus1=bus_XFMR-000253_sec phases=1 kV=0.24 kVA=5212.0 Pmpp=5212.0 irradiance=1 pf=1
New PVSystem.pv_XFMR-000255 bus1=bus_XFMR-000255_sec phases=1 kV=0.24 kVA=87.2 Pmpp=87.2 irradiance=1 pf=1
New PVSystem.pv_XFMR-000260 bus1=bus_XFMR-000260_sec phases=1 kV=0.24 kVA=101.2 Pmpp=101.2 irradiance=1 pf=1
New PVSystem.pv_XFMR-000265 bus1=bus_XFMR-000265_sec phases=1 kV=0.24 kVA=131.6 Pmpp=131.6 irradiance=1 pf=1
New PVSystem.pv_XFMR-000266 bus1=bus_XFMR-000266_sec phases=1 kV=0.24 kVA=44.1 Pmpp=44.1 irradiance=1 pf=1
New PVSystem.pv_XFMR-000268 bus1=bus_XFMR-000268_sec phases=1 kV=0.24 kVA=1004.4 Pmpp=1004.4 irradiance=1 pf=1
New PVSystem.pv_XFMR-000272 bus1=bus_XFMR-000272_sec phases=1 kV=0.24 kVA=94.4 Pmpp=94.4 irradiance=1 pf=1
New PVSystem.pv_XFMR-000273 bus1=bus_XFMR-000273_sec phases=1 kV=0.24 kVA=42.0 Pmpp=42.0 irradiance=1 pf=1
New PVSystem.pv_XFMR-000274 bus1=bus_XFMR-000274_sec phases=1 kV=0.24 kVA=268.4 Pmpp=268.4 irradiance=1 pf=1
New PVSystem.pv_XFMR-000275 bus1=bus_XFMR-000275_sec phases=1 kV=0.24 kVA=253.9 Pmpp=253.9 irradiance=1 pf=1
New PVSystem.pv_XFMR-000277 bus1=bus_XFMR-000277_sec phases=1 kV=0.24 kVA=103.5 Pmpp=103.5 irradiance=1 pf=1
New PVSystem.pv_XFMR-000278 bus1=bus_XFMR-000278_sec phases=1 kV=0.24 kVA=73.6 Pmpp=73.6 irradiance=1 pf=1
New PVSystem.pv_XFMR-000280 bus1=bus_XFMR-000280_sec phases=1 kV=0.24 kVA=225.3 Pmpp=225.3 irradiance=1 pf=1
New PVSystem.pv_XFMR-000282 bus1=bus_XFMR-000282_sec phases=1 kV=0.24 kVA=89.0 Pmpp=89.0 irradiance=1 pf=1
New PVSystem.pv_XFMR-000284 bus1=bus_XFMR-000284_sec phases=1 kV=0.24 kVA=2882.1 Pmpp=2882.1 irradiance=1 pf=1
New PVSystem.pv_XFMR-000287 bus1=bus_XFMR-000287_sec phases=1 kV=0.24 kVA=94.4 Pmpp=94.4 irradiance=1 pf=1
New PVSystem.pv_XFMR-000290 bus1=bus_XFMR-000290_sec phases=1 kV=0.24 kVA=176.0 Pmpp=176.0 irradiance=1 pf=1
New PVSystem.pv_XFMR-000291 bus1=bus_XFMR-000291_sec phases=1 kV=0.24 kVA=61.1 Pmpp=61.1 irradiance=1 pf=1
New PVSystem.pv_XFMR-000292 bus1=bus_XFMR-000292_sec phases=1 kV=0.24 kVA=305.6 Pmpp=305.6 irradiance=1 pf=1
New PVSystem.pv_XFMR-000293 bus1=bus_XFMR-000293_sec phases=1 kV=0.24 kVA=196.5 Pmpp=196.5 irradiance=1 pf=1
New PVSystem.pv_XFMR-000294 bus1=bus_XFMR-000294_sec phases=1 kV=0.24 kVA=194.9 Pmpp=194.9 irradiance=1 pf=1
New PVSystem.pv_XFMR-000297 bus1=bus_XFMR-000297_sec phases=1 kV=0.24 kVA=98.0 Pmpp=98.0 irradiance=1 pf=1
New PVSystem.pv_XFMR-000299 bus1=bus_XFMR-000299_sec phases=1 kV=0.24 kVA=2331.6 Pmpp=2331.6 irradiance=1 pf=1
New PVSystem.pv_XFMR-000304 bus1=bus_XFMR-000304_sec phases=1 kV=0.24 kVA=58.8 Pmpp=58.8 irradiance=1 pf=1
New PVSystem.pv_XFMR-000305 bus1=bus_XFMR-000305_sec phases=1 kV=0.24 kVA=112.5 Pmpp=112.5 irradiance=1 pf=1
New PVSystem.pv_XFMR-000306 bus1=bus_XFMR-000306_sec phases=1 kV=0.24 kVA=145.5 Pmpp=145.5 irradiance=1 pf=1
New PVSystem.pv_XFMR-000309 bus1=bus_XFMR-000309_sec phases=1 kV=0.24 kVA=29.7 Pmpp=29.7 irradiance=1 pf=1
New PVSystem.pv_XFMR-000310 bus1=bus_XFMR-000310_sec phases=1 kV=0.24 kVA=52.8 Pmpp=52.8 irradiance=1 pf=1
New PVSystem.pv_XFMR-000311 bus1=bus_XFMR-000311_sec phases=1 kV=0.24 kVA=3984.2 Pmpp=3984.2 irradiance=1 pf=1
New PVSystem.pv_XFMR-000312 bus1=bus_XFMR-000312_sec phases=1 kV=0.24 kVA=82.6 Pmpp=82.6 irradiance=1 pf=1
New PVSystem.pv_XFMR-000313 bus1=bus_XFMR-000313_sec phases=1 kV=0.24 kVA=80.0 Pmpp=80.0 irradiance=1 pf=1
New PVSystem.pv_XFMR-000315 bus1=bus_XFMR-000315_sec phases=1 kV=0.24 kVA=162.5 Pmpp=162.5 irradiance=1 pf=1
New PVSystem.pv_XFMR-000316 bus1=bus_XFMR-000316_sec phases=1 kV=0.24 kVA=54.6 Pmpp=54.6 irradiance=1 pf=1
New PVSystem.pv_XFMR-000319 bus1=bus_XFMR-000319_sec phases=1 kV=0.24 kVA=106.7 Pmpp=106.7 irradiance=1 pf=1
New PVSystem.pv_XFMR-000320 bus1=bus_XFMR-000320_sec phases=1 kV=0.24 kVA=3666.2 Pmpp=3666.2 irradiance=1 pf=1
New PVSystem.pv_XFMR-000321 bus1=bus_XFMR-000321_sec phases=1 kV=0.24 kVA=137.1 Pmpp=137.1 irradiance=1 pf=1
New PVSystem.pv_XFMR-000323 bus1=bus_XFMR-000323_sec phases=1 kV=0.24 kVA=3574.6 Pmpp=3574.6 irradiance=1 pf=1
New PVSystem.pv_XFMR-000325 bus1=bus_XFMR-000325_sec phases=1 kV=0.24 kVA=244.4 Pmpp=244.4 irradiance=1 pf=1
New PVSystem.pv_XFMR-000326 bus1=bus_XFMR-000326_sec phases=1 kV=0.24 kVA=131.3 Pmpp=131.3 irradiance=1 pf=1
New PVSystem.pv_XFMR-000329 bus1=bus_XFMR-000329_sec phases=1 kV=0.24 kVA=111.6 Pmpp=111.6 irradiance=1 pf=1
New PVSystem.pv_XFMR-000330 bus1=bus_XFMR-000330_sec phases=1 kV=0.24 kVA=127.2 Pmpp=127.2 irradiance=1 pf=1
New PVSystem.pv_XFMR-000331 bus1=bus_XFMR-000331_sec phases=1 kV=0.24 kVA=3655.2 Pmpp=3655.2 irradiance=1 pf=1
New PVSystem.pv_XFMR-000335 bus1=bus_XFMR-000335_sec phases=1 kV=0.24 kVA=190.9 Pmpp=190.9 irradiance=1 pf=1
New PVSystem.pv_XFMR-000336 bus1=bus_XFMR-000336_sec phases=1 kV=0.24 kVA=51.0 Pmpp=51.0 irradiance=1 pf=1
New PVSystem.pv_XFMR-000337 bus1=bus_XFMR-000337_sec phases=1 kV=0.24 kVA=231.6 Pmpp=231.6 irradiance=1 pf=1
New PVSystem.pv_XFMR-000339 bus1=bus_XFMR-000339_sec phases=1 kV=0.24 kVA=149.6 Pmpp=149.6 irradiance=1 pf=1
New PVSystem.pv_XFMR-000341 bus1=bus_XFMR-000341_sec phases=1 kV=0.24 kVA=141.6 Pmpp=141.6 irradiance=1 pf=1
New PVSystem.pv_XFMR-000342 bus1=bus_XFMR-000342_sec phases=1 kV=0.24 kVA=56.1 Pmpp=56.1 irradiance=1 pf=1
New PVSystem.pv_XFMR-000346 bus1=bus_XFMR-000346_sec phases=1 kV=0.24 kVA=88.0 Pmpp=88.0 irradiance=1 pf=1
New PVSystem.pv_XFMR-000349 bus1=bus_XFMR-000349_sec phases=1 kV=0.24 kVA=118.3 Pmpp=118.3 irradiance=1 pf=1
New PVSystem.pv_XFMR-000350 bus1=bus_XFMR-000350_sec phases=1 kV=0.24 kVA=47.4 Pmpp=47.4 irradiance=1 pf=1
New PVSystem.pv_XFMR-000352 bus1=bus_XFMR-000352_sec phases=1 kV=0.24 kVA=1674.0 Pmpp=1674.0 irradiance=1 pf=1
New PVSystem.pv_XFMR-000354 bus1=bus_XFMR-000354_sec phases=1 kV=0.24 kVA=182.6 Pmpp=182.6 irradiance=1 pf=1
New PVSystem.pv_XFMR-000355 bus1=bus_XFMR-000355_sec phases=1 kV=0.24 kVA=115.0 Pmpp=115.0 irradiance=1 pf=1
New PVSystem.pv_XFMR-000356 bus1=bus_XFMR-000356_sec phases=1 kV=0.24 kVA=135.0 Pmpp=135.0 irradiance=1 pf=1
New PVSystem.pv_XFMR-000357 bus1=bus_XFMR-000357_sec phases=1 kV=0.24 kVA=70.8 Pmpp=70.8 irradiance=1 pf=1
New PVSystem.pv_XFMR-000360 bus1=bus_XFMR-000360_sec phases=1 kV=0.24 kVA=44.8 Pmpp=44.8 irradiance=1 pf=1
New PVSystem.pv_XFMR-000362 bus1=bus_XFMR-000362_sec phases=1 kV=0.24 kVA=2276.3 Pmpp=2276.3 irradiance=1 pf=1
New PVSystem.pv_XFMR-000363 bus1=bus_XFMR-000363_sec phases=1 kV=0.24 kVA=82.6 Pmpp=82.6 irradiance=1 pf=1
New PVSystem.pv_XFMR-000365 bus1=bus_XFMR-000365_sec phases=1 kV=0.24 kVA=92.8 Pmpp=92.8 irradiance=1 pf=1
New PVSystem.pv_XFMR-000367 bus1=bus_XFMR-000367_sec phases=1 kV=0.24 kVA=1262.3 Pmpp=1262.3 irradiance=1 pf=1
New PVSystem.pv_XFMR-000370 bus1=bus_XFMR-000370_sec phases=1 kV=0.24 kVA=66.6 Pmpp=66.6 irradiance=1 pf=1
New PVSystem.pv_XFMR-000372 bus1=bus_XFMR-000372_sec phases=1 kV=0.24 kVA=300.0 Pmpp=300.0 irradiance=1 pf=1
New PVSystem.pv_XFMR-000373 bus1=bus_XFMR-000373_sec phases=1 kV=0.24 kVA=229.0 Pmpp=229.0 irradiance=1 pf=1
New PVSystem.pv_XFMR-000378 bus1=bus_XFMR-000378_sec phases=1 kV=0.24 kVA=279.7 Pmpp=279.7 irradiance=1 pf=1
New PVSystem.pv_XFMR-000380 bus1=bus_XFMR-000380_sec phases=1 kV=0.24 kVA=74.2 Pmpp=74.2 irradiance=1 pf=1
New PVSystem.pv_XFMR-000382 bus1=bus_XFMR-000382_sec phases=1 kV=0.24 kVA=36.9 Pmpp=36.9 irradiance=1 pf=1
New PVSystem.pv_XFMR-000383 bus1=bus_XFMR-000383_sec phases=1 kV=0.24 kVA=31.0 Pmpp=31.0 irradiance=1 pf=1
New PVSystem.pv_XFMR-000385 bus1=bus_XFMR-000385_sec phases=1 kV=0.24 kVA=41.4 Pmpp=41.4 irradiance=1 pf=1
New PVSystem.pv_XFMR-000388 bus1=bus_XFMR-000388_sec phases=1 kV=0.24 kVA=3517.6 Pmpp=3517.6 irradiance=1 pf=1
New PVSystem.pv_XFMR-000391 bus1=bus_XFMR-000391_sec phases=1 kV=0.24 kVA=911.2 Pmpp=911.2 irradiance=1 pf=1
New PVSystem.pv_XFMR-000392 bus1=bus_XFMR-000392_sec phases=1 kV=0.24 kVA=144.0 Pmpp=144.0 irradiance=1 pf=1
New PVSystem.pv_XFMR-000393 bus1=bus_XFMR-000393_sec phases=1 kV=0.24 kVA=231.6 Pmpp=231.6 irradiance=1 pf=1
New PVSystem.pv_XFMR-000402 bus1=bus_XFMR-000402_sec phases=1 kV=0.24 kVA=1215.4 Pmpp=1215.4 irradiance=1 pf=1
New PVSystem.pv_XFMR-000404 bus1=bus_XFMR-000404_sec phases=1 kV=0.24 kVA=4362.6 Pmpp=4362.6 irradiance=1 pf=1
New PVSystem.pv_XFMR-000405 bus1=bus_XFMR-000405_sec phases=1 kV=0.24 kVA=275.6 Pmpp=275.6 irradiance=1 pf=1
New PVSystem.pv_XFMR-000406 bus1=bus_XFMR-000406_sec phases=1 kV=0.24 kVA=147.0 Pmpp=147.0 irradiance=1 pf=1
New PVSystem.pv_XFMR-000411 bus1=bus_XFMR-000411_sec phases=1 kV=0.24 kVA=110.4 Pmpp=110.4 irradiance=1 pf=1
New PVSystem.pv_XFMR-000412 bus1=bus_XFMR-000412_sec phases=1 kV=0.24 kVA=260.3 Pmpp=260.3 irradiance=1 pf=1
New PVSystem.pv_XFMR-000414 bus1=bus_XFMR-000414_sec phases=1 kV=0.24 kVA=88.0 Pmpp=88.0 irradiance=1 pf=1
New PVSystem.pv_XFMR-000415 bus1=bus_XFMR-000415_sec phases=1 kV=0.24 kVA=166.4 Pmpp=166.4 irradiance=1 pf=1
New PVSystem.pv_XFMR-000419 bus1=bus_XFMR-000419_sec phases=1 kV=0.24 kVA=391.4 Pmpp=391.4 irradiance=1 pf=1
New PVSystem.pv_XFMR-000421 bus1=bus_XFMR-000421_sec phases=1 kV=0.24 kVA=66.3 Pmpp=66.3 irradiance=1 pf=1
New PVSystem.pv_XFMR-000422 bus1=bus_XFMR-000422_sec phases=1 kV=0.24 kVA=145.6 Pmpp=145.6 irradiance=1 pf=1
New PVSystem.pv_XFMR-000423 bus1=bus_XFMR-000423_sec phases=1 kV=0.24 kVA=263.3 Pmpp=263.3 irradiance=1 pf=1
New PVSystem.pv_XFMR-000428 bus1=bus_XFMR-000428_sec phases=1 kV=0.24 kVA=144.0 Pmpp=144.0 irradiance=1 pf=1
New PVSystem.pv_XFMR-000429 bus1=bus_XFMR-000429_sec phases=1 kV=0.24 kVA=77.0 Pmpp=77.0 irradiance=1 pf=1
New PVSystem.pv_XFMR-000431 bus1=bus_XFMR-000431_sec phases=1 kV=0.24 kVA=238.7 Pmpp=238.7 irradiance=1 pf=1
New PVSystem.pv_XFMR-000434 bus1=bus_XFMR-000434_sec phases=1 kV=0.24 kVA=137.8 Pmpp=137.8 irradiance=1 pf=1
New PVSystem.pv_XFMR-000436 bus1=bus_XFMR-000436_sec phases=1 kV=0.24 kVA=150.3 Pmpp=150.3 irradiance=1 pf=1
New PVSystem.pv_XFMR-000437 bus1=bus_XFMR-000437_sec phases=1 kV=0.24 kVA=2477.2 Pmpp=2477.2 irradiance=1 pf=1
New PVSystem.pv_XFMR-000438 bus1=bus_XFMR-000438_sec phases=1 kV=0.24 kVA=276.6 Pmpp=276.6 irradiance=1 pf=1
New PVSystem.pv_XFMR-000439 bus1=bus_XFMR-000439_sec phases=1 kV=0.24 kVA=167.4 Pmpp=167.4 irradiance=1 pf=1
New PVSystem.pv_XFMR-000441 bus1=bus_XFMR-000441_sec phases=1 kV=0.24 kVA=130.0 Pmpp=130.0 irradiance=1 pf=1
New PVSystem.pv_XFMR-000443 bus1=bus_XFMR-000443_sec phases=1 kV=0.24 kVA=205.1 Pmpp=205.1 irradiance=1 pf=1
New PVSystem.pv_XFMR-000445 bus1=bus_XFMR-000445_sec phases=1 kV=0.24 kVA=825.9 Pmpp=825.9 irradiance=1 pf=1
New PVSystem.pv_XFMR-000446 bus1=bus_XFMR-000446_sec phases=1 kV=0.24 kVA=59.8 Pmpp=59.8 irradiance=1 pf=1
New PVSystem.pv_XFMR-000447 bus1=bus_XFMR-000447_sec phases=1 kV=0.24 kVA=109.0 Pmpp=109.0 irradiance=1 pf=1
New PVSystem.pv_XFMR-000448 bus1=bus_XFMR-000448_sec phases=1 kV=0.24 kVA=1206.6 Pmpp=1206.6 irradiance=1 pf=1
New PVSystem.pv_XFMR-000450 bus1=bus_XFMR-000450_sec phases=1 kV=0.24 kVA=578.1 Pmpp=578.1 irradiance=1 pf=1
New PVSystem.pv_XFMR-000452 bus1=bus_XFMR-000452_sec phases=1 kV=0.24 kVA=299.2 Pmpp=299.2 irradiance=1 pf=1
New PVSystem.pv_XFMR-000453 bus1=bus_XFMR-000453_sec phases=1 kV=0.24 kVA=110.5 Pmpp=110.5 irradiance=1 pf=1
New PVSystem.pv_XFMR-000456 bus1=bus_XFMR-000456_sec phases=1 kV=0.24 kVA=174.9 Pmpp=174.9 irradiance=1 pf=1
New PVSystem.pv_XFMR-000458 bus1=bus_XFMR-000458_sec phases=1 kV=0.24 kVA=1321.4 Pmpp=1321.4 irradiance=1 pf=1
New PVSystem.pv_XFMR-000460 bus1=bus_XFMR-000460_sec phases=1 kV=0.24 kVA=5473.3 Pmpp=5473.3 irradiance=1 pf=1
New PVSystem.pv_XFMR-000465 bus1=bus_XFMR-000465_sec phases=1 kV=0.24 kVA=40.0 Pmpp=40.0 irradiance=1 pf=1
New PVSystem.pv_XFMR-000466 bus1=bus_XFMR-000466_sec phases=1 kV=0.24 kVA=7259.8 Pmpp=7259.8 irradiance=1 pf=1
New PVSystem.pv_XFMR-000468 bus1=bus_XFMR-000468_sec phases=1 kV=0.24 kVA=118.8 Pmpp=118.8 irradiance=1 pf=1
New PVSystem.pv_XFMR-000469 bus1=bus_XFMR-000469_sec phases=1 kV=0.24 kVA=113.1 Pmpp=113.1 irradiance=1 pf=1
New PVSystem.pv_XFMR-000471 bus1=bus_XFMR-000471_sec phases=1 kV=0.24 kVA=220.9 Pmpp=220.9 irradiance=1 pf=1
New PVSystem.pv_XFMR-000472 bus1=bus_XFMR-000472_sec phases=1 kV=0.24 kVA=156.6 Pmpp=156.6 irradiance=1 pf=1
New PVSystem.pv_XFMR-000473 bus1=bus_XFMR-000473_sec phases=1 kV=0.24 kVA=218.3 Pmpp=218.3 irradiance=1 pf=1
New PVSystem.pv_XFMR-000474 bus1=bus_XFMR-000474_sec phases=1 kV=0.24 kVA=5771.1 Pmpp=5771.1 irradiance=1 pf=1
New PVSystem.pv_XFMR-000475 bus1=bus_XFMR-000475_sec phases=1 kV=0.24 kVA=226.1 Pmpp=226.1 irradiance=1 pf=1
New PVSystem.pv_XFMR-000479 bus1=bus_XFMR-000479_sec phases=1 kV=0.24 kVA=5029.5 Pmpp=5029.5 irradiance=1 pf=1
New PVSystem.pv_XFMR-000480 bus1=bus_XFMR-000480_sec phases=1 kV=0.24 kVA=239.2 Pmpp=239.2 irradiance=1 pf=1
New PVSystem.pv_XFMR-000481 bus1=bus_XFMR-000481_sec phases=1 kV=0.24 kVA=157.2 Pmpp=157.2 irradiance=1 pf=1
New PVSystem.pv_XFMR-000482 bus1=bus_XFMR-000482_sec phases=1 kV=0.24 kVA=1544.0 Pmpp=1544.0 irradiance=1 pf=1
New PVSystem.pv_XFMR-000484 bus1=bus_XFMR-000484_sec phases=1 kV=0.24 kVA=4099.2 Pmpp=4099.2 irradiance=1 pf=1
New PVSystem.pv_XFMR-000485 bus1=bus_XFMR-000485_sec phases=1 kV=0.24 kVA=173.4 Pmpp=173.4 irradiance=1 pf=1
New PVSystem.pv_XFMR-000486 bus1=bus_XFMR-000486_sec phases=1 kV=0.24 kVA=126.4 Pmpp=126.4 irradiance=1 pf=1
New PVSystem.pv_XFMR-000488 bus1=bus_XFMR-000488_sec phases=1 kV=0.24 kVA=184.0 Pmpp=184.0 irradiance=1 pf=1
New PVSystem.pv_XFMR-000489 bus1=bus_XFMR-000489_sec phases=1 kV=0.24 kVA=103.5 Pmpp=103.5 irradiance=1 pf=1
New PVSystem.pv_XFMR-000490 bus1=bus_XFMR-000490_sec phases=1 kV=0.24 kVA=43.2 Pmpp=43.2 irradiance=1 pf=1
